Version 4
SHEET 1 1256 984
WIRE 256 336 240 336
WIRE 304 336 256 336
WIRE 512 336 304 336
WIRE 528 336 512 336
WIRE 688 336 528 336
WIRE 256 368 256 336
WIRE 512 368 512 336
WIRE 368 384 304 384
WIRE 448 384 368 384
WIRE 464 384 448 384
WIRE 240 416 240 336
WIRE 256 416 240 416
WIRE 528 416 528 336
WIRE 528 416 512 416
WIRE 256 464 256 448
WIRE 448 480 448 384
WIRE 512 480 512 464
WIRE 512 480 448 480
WIRE 256 496 256 464
WIRE 368 496 256 496
WIRE 400 496 368 496
WIRE 416 496 400 496
WIRE 256 544 256 496
WIRE 320 592 256 592
WIRE 208 624 -64 624
WIRE -64 656 -64 624
WIRE 256 688 256 640
WIRE 368 720 368 496
WIRE 512 720 512 480
WIRE 688 720 688 336
WIRE 288 736 256 736
WIRE 208 768 96 768
WIRE 96 800 96 768
WIRE -64 896 -64 736
WIRE 96 896 96 880
WIRE 96 896 -64 896
WIRE 208 896 96 896
WIRE 256 896 256 784
WIRE 256 896 208 896
WIRE 288 896 288 736
WIRE 288 896 256 896
WIRE 320 896 320 592
WIRE 320 896 288 896
WIRE 368 896 368 784
WIRE 368 896 320 896
WIRE 512 896 512 800
WIRE 512 896 368 896
WIRE 688 896 688 800
WIRE 688 896 512 896
WIRE 208 928 208 896
FLAG 208 928 0
FLAG 96 768 Vin
FLAG 400 496 Vout
FLAG 304 336 VDD
FLAG 368 384 Vbias
SYMBOL voltage 96 784 R0
WINDOW 123 33 85 Left 2
WINDOW 39 0 0 Left 2
WINDOW 3 43 56 Left 2
SYMATTR Value2 AC 1V
SYMATTR Value -0.889733
SYMATTR InstName Vin
SYMBOL voltage 688 704 R0
WINDOW 123 0 0 Left 0
WINDOW 39 0 0 Left 0
SYMATTR InstName VDD
SYMATTR Value -3V
SYMBOL current 512 720 R0
WINDOW 123 0 0 Left 2
WINDOW 39 0 0 Left 2
SYMATTR InstName Ibias
SYMATTR Value -140µ
SYMBOL pmos4 208 688 R0
WINDOW 3 -115 -8 Left 2
SYMATTR Value PMOS-BSIM
SYMATTR InstName M1
SYMATTR Value2 l={Lp1} w={Wp1} ad={ADp1} as={ASp1} pd={PDp1} ps={PSp1} m=1
SYMBOL nmos4 304 464 R180
SYMATTR InstName M4
SYMATTR Value NMOS-BSIM
SYMATTR Value2 l={Ln} w={Wn} ad={ADn} as={ASn} pd={PDn} ps={PSn} m=1
SYMBOL nmos4 464 464 M180
SYMATTR InstName M5
SYMATTR Value NMOS-BSIM
SYMATTR Value2 l={Ln} w={Wn} ad={ADn} as={ASn} pd={PDn} ps={PSn} m=1
SYMBOL cap 352 720 R0
SYMATTR InstName C1
SYMATTR Value 1.5pF
SYMBOL pmos4 208 544 R0
WINDOW 3 -115 -8 Left 2
SYMATTR Value PMOS-BSIM
SYMATTR InstName M2
SYMATTR Value2 l={Lp1} w={Wp1} ad={ADp1} as={ASp1} pd={PDp1} ps={PSp1} m=1
SYMBOL voltage -64 640 R0
WINDOW 123 0 0 Left 0
WINDOW 39 0 0 Left 0
SYMATTR InstName Vbias
SYMATTR Value -2.5V
TEXT -144 64 Left 2 ;AMPLIFICADOR CS (PMOS) CON CARGA ACTIVA NMOS Y CASCODO
TEXT -568 400 Left 2 !.param Lp1=2.8571*Lmin\n.param Wp1=80*Lp1\n.param ADp1=Wp1*2.75*Lmin\n.param ASp1=Wp1*2.75*Lmin\n.param PDp1=Wp1+5.5*Lmin\n.param PSp1=Wp1+5.5*Lmin
TEXT -776 344 Left 2 !.param Lmin=0.35u
TEXT 840 456 Left 2 !;tf v(Vout) Vin
TEXT 840 392 Left 2 !;dc Vin 0 -3V -0.01V
TEXT 400 296 Left 2 !.LIB BSIM3_035.inc
TEXT 840 360 Left 2 !.op
TEXT -824 304 Left 2 ;Parámetros de los transistores:
TEXT 840 424 Left 2 !;meas v(Vin) when v(Vout)=-1.5
TEXT -848 176 Left 2 ;pmos (enhancement o enriquecimiento):\nCorte (Cut Off) : Vt<= Vgs\nLineal (Triode): Vgs-Vt<= Vds<0\nSaturación(Active): Vds<=Vgs-Vt<= 0
TEXT -1208 600 Left 2 ;Se le añade ahora el pmos M2 como cascodo, Con esto se conseguirá una\nmayor amplificación y una mayor impedancia de salida.
TEXT -1056 400 Left 2 !.param Ln=2.8571*Lmin\n.param Wn=20*Ln\n.param ADn=Wn*2.75*Lmin\n.param ASn=Wn*2.75*Lmin\n.param PDn=Wn+5.5*Lmin\n.param PSn=Wn+5.5*Lmin
TEXT -1312 176 Left 2 ;nmos (enhancement o enriquecimiento):\nCorte (Cut Off) : Vgs<= Vt\nLineal (Triode): Vgs-Vt<= Vds<0\nSaturación(Active): 0<=Vgs-Vt<=Vds
TEXT 840 512 Left 2 !;noise V(Vout) Vin dec 100 1K 100G
TEXT 840 488 Left 2 !.ac dec 10 100k 100Meg
TEXT -1208 736 Left 2 ;Con el circuito con cascodo, se consigue una ganancia de -118, y se pasa\nde tener una impedancia de salida de 57356 a 111819.
TEXT -1208 672 Left 2 ;Para una Vbias de -2.5V, se hace un barrido DC para buscar la Vout de\n-1.5V deseada.
