Version 4
SHEET 1 1048 984
WIRE 48 368 32 368
WIRE 96 368 48 368
WIRE 304 368 96 368
WIRE 320 368 304 368
WIRE 480 368 320 368
WIRE 48 400 48 368
WIRE 304 400 304 368
WIRE 160 416 96 416
WIRE 240 416 160 416
WIRE 256 416 240 416
WIRE 32 448 32 368
WIRE 48 448 32 448
WIRE 320 448 320 368
WIRE 320 448 304 448
WIRE 240 512 240 416
WIRE 304 512 304 496
WIRE 304 512 240 512
WIRE 48 576 48 496
WIRE 160 576 48 576
WIRE 192 576 160 576
WIRE 208 576 192 576
WIRE 48 592 48 576
WIRE 160 624 160 576
WIRE 304 624 304 512
WIRE 480 624 480 368
WIRE 80 640 48 640
WIRE 0 672 -112 672
WIRE -112 704 -112 672
WIRE -112 800 -112 784
WIRE 0 800 -112 800
WIRE 48 800 48 688
WIRE 48 800 0 800
WIRE 80 800 80 640
WIRE 80 800 48 800
WIRE 160 800 160 688
WIRE 160 800 80 800
WIRE 304 800 304 704
WIRE 304 800 160 800
WIRE 480 800 480 704
WIRE 480 800 304 800
WIRE 0 832 0 800
FLAG 0 832 0
FLAG -112 672 Vin
FLAG 192 576 Vout
FLAG 96 368 VDD
FLAG 160 416 Vbias
SYMBOL voltage -112 688 R0
WINDOW 123 33 85 Left 2
WINDOW 39 0 0 Left 2
WINDOW 3 43 56 Left 2
SYMATTR Value2 AC 1V
SYMATTR Value -0.888425
SYMATTR InstName Vin
SYMBOL voltage 480 608 R0
WINDOW 123 0 0 Left 0
WINDOW 39 0 0 Left 0
SYMATTR InstName VDD
SYMATTR Value -3V
SYMBOL current 304 624 R0
WINDOW 123 0 0 Left 2
WINDOW 39 0 0 Left 2
SYMATTR InstName Ibias
SYMATTR Value -140µ
SYMBOL pmos4 0 592 R0
WINDOW 3 -115 -8 Left 2
SYMATTR Value PMOS-BSIM
SYMATTR InstName M1
SYMATTR Value2 l={Lp1} w={Wp1} ad={ADp1} as={ASp1} pd={PDp1} ps={PSp1} m=1
SYMBOL nmos4 96 496 R180
SYMATTR InstName M4
SYMATTR Value NMOS-BSIM
SYMATTR Value2 l={Ln} w={Wn} ad={ADn} as={ASn} pd={PDn} ps={PSn} m=1
SYMBOL nmos4 256 496 M180
SYMATTR InstName M5
SYMATTR Value NMOS-BSIM
SYMATTR Value2 l={Ln} w={Wn} ad={ADn} as={ASn} pd={PDn} ps={PSn} m=1
SYMBOL cap 144 624 R0
SYMATTR InstName C1
SYMATTR Value 1.5pF
TEXT -144 64 Left 2 ;AMPLIFICADOR CS (PMOS) CON CARGA ACTIVA NMOS
TEXT -568 400 Left 2 !.param Lp1=2.8571*Lmin\n.param Wp1=80*Lp1\n.param ADp1=Wp1*2.75*Lmin\n.param ASp1=Wp1*2.75*Lmin\n.param PDp1=Wp1+5.5*Lmin\n.param PSp1=Wp1+5.5*Lmin
TEXT -776 344 Left 2 !.param Lmin=0.35u
TEXT 632 488 Left 2 !;tf v(Vout) Vin
TEXT 632 424 Left 2 !;dc Vin 0 -3V -0.01V
TEXT 192 328 Left 2 !.LIB BSIM3_035.inc
TEXT 632 392 Left 2 !.op
TEXT -824 304 Left 2 ;Parámetros de los transistores:
TEXT 632 456 Left 2 !.meas v(Vin) when v(Vout)=-1.5
TEXT -848 176 Left 2 ;pmos (enhancement o enriquecimiento):\nCorte (Cut Off) : Vt<= Vgs\nLineal (Triode): Vgs-Vt<= Vds<0\nSaturación(Active): Vds<=Vgs-Vt<= 0
TEXT -1208 600 Left 2 ;Lo que antes era RD ahora se sustituye por la impedancia de salida del M2\nen pequeña señal.
TEXT -1208 656 Left 2 ;Ahora en las especificaciones, en vez de buscar el ancho de banda para una caída de 3dB\nen la ganancia, se opera con el producto de ganancia * ancho de banda GBW.\nEn el caso anterior (RD), GBW = 10 * 10.6 = 106MHz
TEXT -1056 400 Left 2 !.param Ln=2.8571*Lmin\n.param Wn=20*Ln\n.param ADn=Wn*2.75*Lmin\n.param ASn=Wn*2.75*Lmin\n.param PDn=Wn+5.5*Lmin\n.param PSn=Wn+5.5*Lmin
TEXT -1312 176 Left 2 ;nmos (enhancement o enriquecimiento):\nCorte (Cut Off) : Vgs<= Vt\nLineal (Triode): Vgs-Vt<= Vds<0\nSaturación(Active): 0<=Vgs-Vt<=Vds
TEXT 632 544 Left 2 !;noise V(Vout) Vin dec 100 1K 100G
TEXT 632 520 Left 2 !.ac dec 10 100k 100Meg
TEXT -1208 744 Left 2 ;Para este amplificador, la ganancia es mucho mayor, de aproximadamente -60 V/V\ny un ancho de banda de unos 2MHz, por lo que GBW = 120MHz.
