Version 4
SHEET 1 1960 680
WIRE 880 112 640 112
WIRE 640 128 640 112
WIRE 640 240 640 208
WIRE 720 240 640 240
WIRE 752 240 720 240
WIRE 656 288 640 288
WIRE 544 320 512 320
WIRE 592 320 544 320
WIRE 656 320 656 288
WIRE 656 320 640 320
WIRE 720 336 720 240
WIRE 512 352 512 320
WIRE 880 352 880 112
WIRE 720 432 720 400
WIRE 512 512 512 432
WIRE 640 512 640 336
WIRE 640 512 512 512
WIRE 880 512 880 432
WIRE 880 512 640 512
WIRE 512 528 512 512
FLAG 512 528 0
FLAG 752 240 Vout
FLAG 720 432 0
FLAG 544 320 Vgs
SYMBOL pmos4 592 240 R0
WINDOW 3 65 61 Left 2
SYMATTR Value pmos-bsim
SYMATTR InstName M1
SYMATTR Value2 l={Lp} w={Wp} ad={ADp} as={ASp} pd={PDp} ps={PSp} m=1
SYMBOL voltage 512 336 R0
WINDOW 3 17 96 Left 2
WINDOW 123 24 44 Left 2
WINDOW 39 0 0 Left 0
SYMATTR Value -849.86301mV
SYMATTR Value2 AC 1
SYMATTR InstName Vin
SYMBOL voltage 880 336 R0
WINDOW 123 0 0 Left 0
WINDOW 39 0 0 Left 0
SYMATTR InstName V2
SYMATTR Value -3
SYMBOL cap 704 336 R0
SYMATTR InstName C1
SYMATTR Value 15pF
SYMBOL res 624 112 R0
SYMATTR InstName R1
SYMATTR Value 10.6K
TEXT -16 -152 Left 2 ;pmos (enhancement o enriquecimiento):\nCorte (Cut Off) : Vt<= Vgs\nLineal (Triode): Vgs-Vt<= Vds<0\nSaturación(Active): Vds<=Vgs-Vt<= 0
TEXT -80 -336 Left 2 ;pmos Shichman-Hodges: considera corriente de puerta Ig=0 y que existe\nuna fuente de corriente que circula de fuente a drenador, controlada por\nlas tensiones Vsg y Vsd cuyo valor es:\nIsd=0; Vsg<=Vt\nIsd=u_pCox(W/L)[(Vsg-|Vt|)Vsd -(1/2)Vsd^2)](1+lambdaVsd); 0<=Vsd<=Vsg-|Vt|\nIsd=(1/2)u_pCox(W/L)[(Vsg-|Vt|)^2](1+lambdaVsd); 0<=Vsg-|Vt|>=Vsd
TEXT 920 -224 Left 2 ;Especificaciones de diseño:\nVDD = 3V\nAvoc = -10 V/V\n-3dB -> Fo = 10MHz con CL = 1.5 pF
TEXT -104 80 Left 2 !.param Lp=2.8571*Lmin\n.param Wp=85*Lp\n.param ADp=Wp*2.75*Lmin\n.param ASp=Wp*2.75*Lmin\n.param PDp=Wp+5.5*Lmin\n.param PSp=Wp+5.5*Lmin
TEXT -104 32 Left 2 !.param Lmin = 0.35u
TEXT 1032 72 Left 2 !.op
TEXT 1032 96 Left 2 !;tf v(Vout) Vin
TEXT 1032 120 Left 2 !;dc Vin 0 -3 -0.01
TEXT 1032 144 Left 2 !;ac dec 10 100k 100Meg
TEXT 1240 120 Left 2 ;- > Barrido DC para buscar la Vin que de Vout = 1.5V (VDD/2)
TEXT 1032 184 Left 2 ;Hacemos una primera aproximacion a las especificaciones\nque se piden según el Braun, pero vemos que ni f0 ni Avoc\nson los valores esperados.
TEXT 1032 264 Left 2 ;La ganancia Avoc es aprox -10 V/V y f0 es mucho menor que 10MHz
TEXT 1032 288 Left 2 ;Se va realizando un barrido DC para volver a encontrar la Vin que de una\nVout de -1.5 voltios.
TEXT -104 56 Left 2 !.LIB BSIM3_035.inc
TEXT 1032 344 Left 2 ;El ancho del canal (W) debe ser de 4 a 5 veces mayor que su equivalente\nen NMOS para compensar la poca movilidad de electrones y conseguir\nuna ganancia similar
